66

Cl         7.75230        5.22300        1.02360
C          6.90530        3.74880        0.62190
C          7.38370        2.95600       -0.40250
Cl         8.83490        3.47070       -1.26230
C          6.71780        1.79790       -0.71770
Cl         7.39360        0.83820       -2.04150
C          5.57080        1.37850       -0.04770
C          4.94510        0.14220       -0.45780
C          5.72090       -1.07580       -0.31330
C          5.44980       -2.13240       -1.16440
Cl         4.18700       -1.99800       -2.39650
C          6.12560       -3.32720       -1.11170
Cl         5.75920       -4.64860       -2.20450
C          7.12720       -3.50520       -0.17310
Cl         7.99960       -5.03760       -0.09980
C          7.40690       -2.46250        0.67940
Cl         8.66960       -2.68200        1.86550
C          6.72410       -1.27040        0.61820
Cl         7.08240        0.05090        1.70260
C          3.51030        0.04210       -0.36840
C          2.70310        0.82180       -1.16550
Cl         3.40370        1.95700       -2.31050
C          1.31710        0.74900       -1.10310
Cl         0.31000        1.75210       -2.12830
C          0.71960       -0.12480       -0.22220
C         -0.73530       -0.20180       -0.15590
C         -1.47190       -0.93920       -1.05460
C         -2.86160       -0.97830       -0.94670
C         -3.55950       -0.32370        0.00560
C         -2.77510        0.42600        0.91570
C         -1.42550        0.47350        0.82430
N         -4.98200       -0.29130        0.18330
C         -5.49140        1.00520        0.46930
C         -5.00360        2.03210       -0.34830
C         -5.38570        3.34520       -0.19180
C         -6.27730        3.62050        0.81060
C         -6.77360        2.64170        1.62770
C         -6.36890        1.31250        1.44840
C         -5.83980       -1.36100       -0.05490
C         -6.73570       -1.85600        0.87210
C         -7.68750       -2.83760        0.58290
C         -7.74950       -3.35310       -0.69080
C         -6.88020       -2.89460       -1.64780
C         -5.94500       -1.90990       -1.31540
C          1.50060       -0.91190        0.58220
Cl         0.70780       -2.01240        1.69140
C          2.89470       -0.82490        0.50540
Cl         3.79320       -1.87560        1.57760
C          5.10420        2.18700        0.97840
Cl         3.67230        1.71140        1.85160
C          5.78520        3.35710        1.28980
Cl         5.16170        4.35270        2.59620
H         -0.94920       -1.47670       -1.83170
H         -3.35130       -1.58250       -1.66960
H         -3.31620        0.95940        1.68950
H         -0.85730        1.06290        1.54560
H         -4.29450        1.82050       -1.14690
H         -4.99670        4.12170       -0.83430
H         -6.56840        4.67330        0.91740
H         -7.47330        2.92940        2.39810
H         -6.78370        0.59700        2.12590
H         -6.67510       -1.49910        1.88340
H         -8.35040       -3.17590        1.34130
H         -8.49390       -4.10790       -0.87790
H         -6.92870       -3.29820       -2.64160
H         -5.35130       -1.58100       -2.12540
