22

C          2.40840       -1.70790        0.15920
O          1.96090       -0.71980       -0.68580
C          1.32500        0.33400        0.01080
O          1.41740        1.44530       -0.85020
C          1.07160        2.62010       -0.22510
C         -0.12290       -0.04510        0.08350
C         -0.73380       -0.44500        1.24170
C         -2.07720       -0.78000        1.23050
C         -2.84420       -0.72870        0.08460
C         -2.22610       -0.32490       -1.08300
C         -0.88240        0.00890       -1.06620
H          2.29450       -2.68280       -0.39910
H          3.51890       -1.64610        0.35310
H          1.83370       -1.80710        1.07760
H          1.50440        2.76550        0.76370
H         -0.02940        2.79630       -0.17690
H          1.46380        3.45560       -0.86940
H         -0.18090       -0.49870        2.14630
H         -2.59680       -1.10290        2.13460
H         -3.90240       -0.99270        0.07650
H         -2.79370       -0.26710       -2.02420
H         -0.40890        0.32280       -1.98230
