16

C          2.89150        0.11660       -0.14420
C          1.41840        0.06970       -0.08680
C          0.76710       -1.14730       -0.08400
C         -0.61040       -1.24480       -0.03140
C         -1.39230       -0.11530        0.02080
C         -0.74830        1.10020        0.01840
C          0.63320        1.20750       -0.03420
N         -2.80390       -0.14940        0.07600
O         -3.44120       -1.36150        0.07830
O         -3.44910        0.90020        0.12140
H          3.30750        1.05750       -0.49210
H          3.39810       -0.36670        0.68840
H          1.36010       -2.05600       -0.12470
H         -1.10330       -2.20090       -0.03000
H         -1.35980        2.01140        0.05980
H          1.13240        2.17910       -0.03560
