160

  C        2.33740       -1.72673        1.24167
  O        1.74358       -1.00490        0.15368
  C        0.37775       -1.12711        0.16920
  C       -0.25135       -1.98022       -0.75801
  C       -1.65485       -2.07336       -0.79944
  C       -2.45961       -1.31299        0.08349
  C       -1.81302       -0.48549        1.03421
  C       -0.41118       -0.38081        1.06780
  N       -3.84207       -1.33661       -0.00489
  C       -4.53912       -0.14238       -0.09240
  C       -4.12172        0.86841       -0.99236
  C       -4.75987        2.11959       -1.02380
  C       -5.85565        2.38083       -0.17721
  O       -6.45705        3.61348       -0.15480
  C       -7.26619        3.82041       -1.32128
  C       -6.30797        1.37143        0.69506
  C       -5.65553        0.12442        0.73899
  C       -4.51743       -2.53833        0.00767
  C       -4.30771       -3.46512        1.05470
  C       -4.99542       -4.69010        1.07987
  C       -5.90877       -5.00846        0.05439
  C       -6.13125       -4.08889       -0.99366
  C       -5.43802       -2.86562       -1.01696
  C       -6.55078       -6.13801        0.07903
  C       -7.15700       -7.16622        0.08863
  C       -7.83178       -8.28438        0.06766
  C       -8.77574       -8.50473       -0.96616
 Cl       -9.06681       -7.28614       -2.13612
  C       -9.48202       -9.73234       -1.02375
 Cl      -10.53830       -9.97767       -2.34669
  C       -9.29274      -10.72531       -0.01510
  C      -10.09228      -12.00174       -0.04367
  C       -9.38492      -13.33720       -0.03670
  C       -9.65939      -14.30222        0.97979
 Cl      -10.81985      -14.00088        2.20214
  C       -8.96507      -15.54036        1.00942
 Cl       -9.30923      -16.68765        2.23192
  C       -7.98294      -15.83128        0.03116
  C       -7.32771      -16.97354        0.06681
  C       -6.72800      -18.00879        0.08618
  C       -6.05000      -19.12995        0.09529
  C       -6.33545      -20.15980       -0.82889
  C       -5.57316      -21.34627       -0.83542
  C       -4.49530      -21.53294        0.06485
  C       -4.22911      -20.49689        0.99460
  C       -4.99875      -19.31753        1.01879
  N       -3.72113      -22.68966        0.03919
  C       -2.33630      -22.59938        0.07639
  C       -1.58040      -23.32399        1.03238
  C       -0.18028      -23.18953        1.10511
  C        0.49929      -22.33316        0.21407
  O        1.85493      -22.13367        0.29982
  C        2.59506      -23.22135       -0.26786
  C       -0.23767      -21.62934       -0.75754
  C       -1.63682      -21.76575       -0.83004
  C       -4.31500      -23.94023       -0.00463
  C       -5.29397      -24.30191        0.95943
  C       -5.90936      -25.57447        1.02409
  C       -5.53161      -26.58707        0.06837
  O       -6.11170      -27.88698        0.12508
  C       -5.58823      -29.12815       -0.51452
  C       -4.52527      -26.19054       -0.94119
  C       -3.92638      -24.87644       -0.99170
  C       -7.71227      -14.88915       -0.99497
 Cl       -6.54273      -15.25518       -2.18997
  C       -8.41376      -13.65450       -1.03459
 Cl       -8.05782      -12.57848       -2.31511
  C      -11.59953      -11.92012       -0.07133
  C      -12.30926      -11.18309        0.92724
 Cl      -11.50046      -10.38340        2.20633
  C      -13.72517      -11.09481        0.89316
 Cl      -14.56583      -10.17144        2.06815
  C      -14.44691      -11.76269       -0.12579
  C      -15.75788      -11.74552       -0.11662
  C      -16.95223      -11.76298       -0.09022
  C      -18.25361      -11.82105       -0.04885
  C      -19.04190      -11.04438       -0.92444
  C      -20.44718      -11.14324       -0.88994
  C      -21.09526      -12.01700        0.01932
  C      -20.28805      -12.76694        0.90884
  C      -18.88702      -12.67331        0.87894
  N      -22.47359      -12.13549        0.06141
  C      -23.05140      -13.38759        0.14222
  C      -23.68837      -13.80214        1.33518
  C      -24.24154      -15.09216        1.44425
  C      -24.17974      -15.99573        0.36294
  O      -24.69735      -17.26041        0.54447
  C      -25.62714      -17.66969       -0.46944
  C      -23.54455      -15.58421       -0.83125
  C      -22.99004      -14.29352       -0.94152
  C      -23.29064      -11.02305        0.09535
  C      -23.13631      -10.03161        1.09414
  C      -24.00875       -8.92659        1.15710
  C      -25.05215       -8.77628        0.22124
  O      -25.90134       -7.69685        0.36389
  C      -26.18671       -6.99173       -0.85795
  C      -25.20308       -9.75980       -0.78274
  C      -24.32900      -10.85994       -0.85040
  C      -13.75826      -12.46686       -1.14530
 Cl      -14.63651      -13.21747       -2.40928
  C      -12.34164      -12.55176       -1.11409
 Cl      -11.56256      -13.41091       -2.37046
  C       -8.34982      -10.47870        1.02849
 Cl       -8.08763      -11.60930        2.28536
  C       -7.60874       -9.27103        1.05894
 Cl       -6.43848       -9.00768        2.27900
  H        3.36999       -1.93823        1.51662
  H        2.72005       -0.73515        1.49679
  H        2.63915       -2.42409        0.45620
  H        0.31302       -2.52602       -1.41232
  H       -2.08869       -2.68400       -1.49532
  H       -2.36433        0.05776        1.70319
  H        0.03432        0.24406        1.74397
  H       -3.33640        0.70109       -1.62476
  H       -4.42129        2.84375       -1.65957
  H       -7.94351        4.62219       -1.61319
  H       -6.58842        4.66574       -1.46142
  H       -8.09510        3.67537       -0.62474
  H       -7.10560        1.54729        1.31043
  H       -5.98887       -0.58209        1.40077
  H       -3.65925       -3.24710        1.81510
  H       -4.82642       -5.33750        1.85557
  H       -6.79842       -4.29430       -1.74549
  H       -5.60579       -2.21339       -1.78845
  H       -7.09320      -20.05660       -1.51198
  H       -5.80171      -22.07573       -1.51617
  H       -3.46583      -20.59669        1.66890
  H       -4.77748      -18.59819        1.71543
  H       -2.05057      -23.94662        1.69522
  H        0.34284      -23.71083        1.81291
  H        3.65652      -23.36252       -0.46120
  H        3.02422      -23.24985        0.73734
  H        2.76346      -22.53113       -1.10043
  H        0.24370      -21.01073       -1.41389
  H       -2.14603      -21.24840       -1.55097
  H       -5.56446      -23.61098        1.66487
  H       -6.62710      -25.67839        1.81825
  H       -5.90596      -30.16829       -0.44313
  H       -6.55279      -29.08359       -1.02075
  H       -5.31819      -29.35344        0.51696
  H       -4.15305      -26.83016       -1.71240
  H       -3.24069      -24.64230       -1.71362
  H      -18.60275      -10.40487       -1.59398
  H      -20.99546      -10.57083       -1.53776
  H      -20.71857      -13.38321        1.60051
  H      -18.34232      -13.23375        1.54287
  H      -23.73451      -13.16613        2.13683
  H      -24.68652      -15.37213        2.32224
  H      -26.25376      -18.55261       -0.58927
  H      -26.37726      -17.49268        0.30491
  H      -24.89269      -18.47339       -0.57400
  H      -23.48413      -16.22611       -1.62506
  H      -22.54061      -14.01665       -1.81815
  H      -22.39478      -10.11895        1.79357
  H      -23.88580       -8.23028        1.89581
  H      -26.67347       -6.03893       -1.06427
  H      -25.42365       -6.28480       -0.52855
  H      -27.21529       -7.15020       -0.52450
  H      -25.95252       -9.67802       -1.47171
  H      -24.45736      -11.54687       -1.59604
