42

C          5.05660        1.26890        0.20810
N          4.40210       -0.01080        0.06410
C          5.18330       -1.20630        0.06300
C          2.99590       -0.03550       -0.08290
C          2.41350       -0.22770       -1.32160
C          1.04750       -0.23360       -1.41030
C          0.24220       -0.04930       -0.27400
C          0.82530        0.14200        0.95720
C          2.19790        0.14840        1.04900
C         -1.18180       -0.05560       -0.42560
C         -1.93280        1.17750       -0.38020
C         -2.30690        1.72300        0.82880
C         -3.05180        2.89120        0.92330
C         -3.42760        3.52780       -0.26560
C         -3.06360        3.00010       -1.49780
C         -2.31590        1.82540       -1.54710
C         -1.92670       -1.24520        0.01800
C         -1.39230       -2.15650        0.89150
C         -2.12040       -3.24290        1.29440
C         -3.40830       -3.45060        0.83660
C         -3.94380       -2.52600       -0.04620
C         -3.20790       -1.44240       -0.44460
H          6.15780        1.18700        0.19670
H          4.77610        1.72750        1.20130
H          4.74820        1.98180       -0.55240
H          6.13150       -1.08650        0.62460
H          4.68060       -2.09830        0.47170
H          5.38210       -1.46160       -1.01620
H          3.06630       -0.37150       -2.18490
H          0.60430       -0.38500       -2.39170
H          0.23290        0.29330        1.87160
H          2.66540        0.29720        2.02340
H         -1.99600        1.21440        1.71510
H         -3.33460        3.29530        1.90900
H         -3.99810        4.42600       -0.17910
H         -3.38460        3.54170       -2.37630
H         -2.03870        1.42880       -2.51620
H         -0.38690       -2.04920        1.28590
H         -1.75930       -4.00360        1.98480
H         -4.01890       -4.30380        1.13380
H         -4.96290       -2.71840       -0.39230
H         -3.64980       -0.73720       -1.13960
