76

Cl         1.08350       -2.41960       -2.26730
C          1.93090       -1.78940       -0.85130
C          3.21050       -2.19770       -0.62030
C          3.90220       -1.73120        0.46840
C          3.24970       -0.83300        1.31830
C          1.96770       -0.43930        1.06520
Cl         1.25030        0.70140        2.21460
C          1.25910       -0.89820       -0.02340
C         -0.08780       -0.46850       -0.26650
C         -0.39050        0.93030       -0.38820
C         -1.46580        1.50590        0.23720
Cl        -2.51650        0.54480        1.21620
C         -1.73070        2.84890        0.10150
C         -0.94270        3.68200       -0.65970
C          0.14630        3.10850       -1.29540
C          0.41030        1.75270       -1.15590
Cl         1.81290        1.11050       -1.99780
N         -1.21460        5.07560       -0.80300
C         -2.18870        5.58700       -1.57760
C         -2.19460        6.96490       -1.50250
C         -1.17140        7.30590       -0.63790
C         -0.71460        8.52610       -0.19010
C          0.34330        8.59080        0.68700
C          0.92730        7.39530        1.09980
C          0.47330        6.17510        0.65420
C         -0.58710        6.11260       -0.22480
C         -1.15790       -1.43240       -0.27480
C         -2.19070       -1.31820       -1.18320
Cl        -2.20810        0.00290       -2.33550
C         -3.23910       -2.21010       -1.23680
C         -3.28340       -3.27010       -0.35800
C         -2.27860       -3.41100        0.55160
C         -1.22130       -2.50230        0.59760
Cl         0.01990       -2.74810        1.78290
N         -4.39540       -4.17670       -0.44920
C         -4.46100       -5.29750       -1.17720
C         -5.68590       -5.87320       -0.99130
C         -6.37590       -5.07690       -0.12800
C         -7.66320       -5.18520        0.40370
C         -8.15180       -4.23790        1.27460
C         -7.29600       -3.19790        1.57650
C         -6.04010       -3.05650        1.08210
C         -5.55380       -4.02400        0.19850
N          5.23780       -2.13580        0.73980
C          5.57090       -3.20740        1.45820
C          6.94960       -3.29110        1.51440
C          7.45290       -2.22950        0.80260
C          8.70330       -1.74420        0.47730
C          8.84010       -0.60360       -0.28730
C          7.74540        0.09680       -0.75700
C          6.49330       -0.38720       -0.43250
C          6.33500       -1.52680        0.33150
H          3.69210       -2.88730       -1.28510
H          3.83810       -0.49180        2.16650
H         -2.58470        3.28400        0.60350
H          0.78260        3.75950       -1.90480
H         -2.88760        5.03170       -2.18680
H         -2.86140        7.66640       -2.01240
H         -1.16880        9.45200       -0.51130
H          0.75470        9.50960        1.07990
H          1.75660        7.44580        1.78730
H          0.92180        5.23850        0.97020
H         -4.04280       -2.10120       -1.96100
H         -2.29230       -4.23510        1.25110
H         -3.68160       -5.70760       -1.82120
H         -6.06200       -6.79440       -1.43830
H         -8.29790       -6.03260        0.12810
H         -9.14410       -4.28970        1.70580
H         -7.65360       -2.43600        2.26040
H         -5.36840       -2.23590        1.32200
H          4.92700       -3.92800        1.94140
H          7.56530       -4.03540        2.01340
H          9.57640       -2.27490        0.83320
H          9.81790       -0.19180       -0.56340
H          7.87340        0.98780       -1.35420
H          5.63110        0.16880       -0.80530
