36

N         -5.12740       -1.05650        1.08270
C         -3.78050       -0.78730        0.73080
C         -3.08100        0.22860        1.35070
Cl        -3.92340        1.15640        2.57530
C         -1.78020        0.49270        1.01470
Cl        -0.94380        1.78930        1.83100
C         -1.09120       -0.22230        0.05330
C          0.26810        0.03910       -0.31120
C          1.24330       -1.00480       -0.17010
C          1.34930       -1.84890        0.94170
Cl         0.23210       -1.62540        2.23980
C          2.30630       -2.83100        1.01660
Cl         2.38690       -3.85460        2.43510
C          3.20790       -3.02690       -0.00760
Cl         4.40430       -4.27660        0.11890
C          3.12190       -2.20120       -1.12110
Cl         4.24870       -2.41230       -2.45200
C          2.16030       -1.22560       -1.17950
Cl         2.10050       -0.21700       -2.60610
C          0.71050        1.39130       -0.44470
C         -0.00430        2.32990       -1.19770
Cl        -1.48540        1.81620       -1.99540
C          0.46570        3.62300       -1.29510
Cl        -0.46950        4.75310       -2.24980
C          1.62080        4.04830       -0.68070
Cl         2.19340        5.70730       -0.82530
C          2.32280        3.11720        0.06170
Cl         3.79410        3.62080        0.85610
C          1.86850        1.82040        0.17030
Cl         2.84210        0.71640        1.14180
C         -1.81480       -1.23620       -0.55410
Cl        -0.99840       -2.18440       -1.78580
C         -3.11560       -1.51470       -0.23130
Cl        -3.98400       -2.81420       -1.03610
H         -5.79360       -0.27860        1.23580
H         -5.45460       -2.03130        1.18900
