48

Cl        -6.28220       -4.05430       -1.81820
C         -5.22090       -2.80550       -1.17900
C         -4.33690       -3.08130       -0.17080
Cl        -4.26110       -4.70670        0.49470
C         -3.52440       -2.08430        0.30380
Cl        -2.40690       -2.50750        1.60510
C         -3.54730       -0.79480       -0.18600
C         -2.64800        0.18650        0.38440
C         -3.07990        1.56830        0.38710
C         -4.17240        1.95080        1.13350
Cl        -5.06390        0.78500        2.09350
C         -4.61490        3.26980        1.15930
Cl        -6.02160        3.72690        2.12870
C         -3.95280        4.22900        0.42410
Cl        -4.47630        5.89330        0.43010
C         -2.85850        3.86750       -0.32850
Cl        -2.03360        5.10370       -1.25430
C         -2.43500        2.53960       -0.33770
Cl        -1.05610        2.13820       -1.29910
C         -1.20730       -0.04690        0.18210
C         -0.67470       -0.77220       -0.83480
Cl        -1.74610       -1.49190       -2.00380
C          0.67730       -0.93550       -0.94130
Cl         1.30440       -1.88420       -2.27830
C          1.57610       -0.37070       -0.01910
C          2.98410       -0.60910       -0.23090
C          3.97800       -0.18400        0.49480
C          5.35400       -0.52320        0.13120
C          6.36230       -0.02680        0.96360
C          7.66990       -0.30410        0.68430
C          8.03300       -1.06350       -0.39970
Br         9.85590       -1.43180       -0.76210
C          7.05040       -1.55620       -1.22410
C          5.71780       -1.27820       -0.94640
C          1.04640        0.35150        0.99360
Cl         2.02590        1.11930        2.22320
C         -0.33950        0.50830        1.08710
Cl        -0.97860        1.46630        2.43670
C         -4.44010       -0.52510       -1.20100
Cl        -4.52600        1.07940       -1.86930
C         -5.26990       -1.51790       -1.69480
Cl        -6.42070       -1.21400       -2.98740
H          3.23320       -1.23510       -1.12960
H          3.82290        0.40480        1.34790
H          6.10840        0.57050        1.81930
H          8.45820        0.08840        1.34160
H          7.33510       -2.15130       -2.07360
H          5.00240       -1.69120       -1.62660
