49

C          4.30590        1.39440        1.78650
C          3.23080        1.82050        0.84200
O          2.54300        0.73330        0.25140
C          1.84440       -0.21590        0.99220
O          1.85180       -0.06040        2.24120
C          1.12900       -1.35250        0.32720
C          2.12550       -2.17350       -0.44700
C          1.54080       -2.82270       -1.66840
C          0.86000       -1.85220       -2.59390
C          0.62020       -0.50340       -1.90090
C          0.01950       -0.86320       -0.55810
C         -0.70660        0.32030        0.02100
C         -1.32870        0.04200        1.31500
C         -1.22800        0.97420        2.32540
C         -1.79910        0.74060        3.54320
C         -2.47630       -0.43730        3.74870
C         -2.59780       -1.38940        2.76710
C         -2.01430       -1.13580        1.54310
C         -1.60830        0.96550       -0.96090
C         -2.74460        0.34460       -1.42960
C         -3.58800        0.95790       -2.35320
C         -3.29290        2.20970       -2.81620
C         -2.17120        2.84190       -2.36380
C         -1.32830        2.22660       -1.43940
H          4.26720        2.04830        2.68380
H          5.33190        1.51700        1.36430
H          4.19800        0.33010        2.08440
H          3.70330        2.37950        0.00040
H          2.47910        2.49270        1.33430
H          0.66200       -1.94520        1.14160
H          3.03500       -1.58930       -0.71450
H          2.47160       -2.98820        0.22360
H          0.88580       -3.67140       -1.37950
H          2.38570       -3.27270       -2.23460
H         -0.16720       -2.25620       -2.78550
H          1.35520       -1.73130       -3.55590
H          1.55240        0.06500       -1.80560
H         -0.16680        0.01680       -2.48940
H         -0.68330       -1.72980       -0.69590
H         -0.68270        1.91460        2.14870
H         -1.71840        1.46470        4.32140
H         -2.94390       -0.65470        4.71010
H         -3.13480       -2.33570        2.91350
H         -2.12320       -1.90600        0.77770
H         -3.02820       -0.64020       -1.10170
H         -4.48300        0.44350       -2.70880
H         -3.97880        2.65140       -3.53670
H         -1.94210        3.83780       -2.73610
H         -0.46140        2.79420       -1.13230
