67

Cl        -7.49200       -1.52110       -5.10280
C         -6.71510       -1.29330       -3.54770
C         -7.40510       -0.60740       -2.55870
C         -6.82230       -0.41460       -1.33500
Cl        -7.68870        0.44990       -0.08260
C         -5.56310       -0.87510       -1.02970
C         -4.88240       -0.71210        0.23630
C         -5.63350       -0.88650        1.45570
C         -5.80250        0.14230        2.35740
Cl        -5.11530        1.73740        2.07770
C         -6.52270       -0.04150        3.52270
C         -7.08200       -1.27260        3.78930
Cl        -8.00980       -1.55190        5.26780
C         -6.93090       -2.32420        2.90600
C         -6.20420       -2.10530        1.74990
Cl        -6.03570       -3.48040        0.64670
C         -3.68850        0.10700        0.27150
C         -2.77480       -0.07580        1.29190
Cl        -3.11520       -1.30330        2.51690
C         -1.60470        0.65180        1.40600
C         -1.35250        1.59870        0.45100
C         -2.23340        1.82030       -0.58780
C         -3.40000        1.06940       -0.66980
Cl        -4.50280        1.37380       -1.99480
N         -0.18570        2.37300        0.49390
C          1.02420        1.93870        0.49430
C          1.32330        0.52130        0.44800
C          2.54170        0.05600        0.44080
Cl         2.75080       -1.71240        0.40490
C          3.73750        0.92690        0.48350
C          4.94560        0.47200        0.23490
C          6.15400        1.30570        0.33170
C          6.48070        1.79090        1.62170
Cl         5.45290        1.39880        2.99960
C          7.59910        2.54720        1.81550
C          8.42850        2.85140        0.75840
Cl         9.88180        3.83370        1.00390
C          8.14150        2.39820       -0.50080
C          6.99120        1.62310       -0.68300
Cl         6.68720        1.03660       -2.29950
C          5.16220       -0.84440       -0.41540
C          4.50230       -1.03430       -1.63290
Cl         3.44020        0.11820       -2.36960
C          4.72710       -2.25100       -2.27960
C          5.55000       -3.19550       -1.73720
Cl         5.81790       -4.73140       -2.57750
C          6.17980       -2.97320       -0.53870
C          5.98620       -1.77520        0.14080
Cl         6.82250       -1.53550        1.66950
C          3.42430        2.36850        0.53260
Cl         4.70170        3.54410        0.43390
C          2.15980        2.83430        0.53810
C         -4.90060       -1.56060       -2.05090
Cl        -3.29700       -2.18220       -1.75910
C         -5.45710       -1.76690       -3.27870
H         -8.41390       -0.21540       -2.74200
H         -6.64110        0.79300        4.22120
H         -7.38220       -3.27810        3.14440
H         -0.93390        0.44410        2.24810
H         -2.04870        2.56460       -1.34980
H          0.47120       -0.17970        0.41500
H          7.83070        2.91010        2.81930
H          8.78210        2.62490       -1.35580
H          4.23160       -2.41360       -3.21190
H          6.83700       -3.72270       -0.09990
H          2.01220        3.90920        0.57690
H         -4.94160       -2.29790       -4.06600
