84

Cl       -12.19590       -5.56030        1.74860
C        -11.36050       -4.11850        1.13530
C        -10.19130       -3.69110        1.71600
Cl        -9.54220       -4.56400        3.10510
C         -9.54990       -2.58180        1.21860
Cl        -8.03350       -2.10830        2.01030
C        -10.03370       -1.85470        0.13590
C         -9.32730       -0.68230       -0.33330
C        -10.09320        0.53080       -0.54730
C        -11.08690        0.87810        0.35210
Cl       -11.44710       -0.13210        1.73330
C        -11.83340        2.04530        0.17830
Cl       -13.07640        2.47010        1.32200
C        -11.58630        2.86040       -0.89120
Cl       -12.52790        4.30720       -1.10270
C        -10.59650        2.52300       -1.79650
Cl       -10.30050        3.56240       -3.17210
C         -9.86820        1.36980       -1.61280
Cl        -8.62080        1.01810       -2.81090
C         -7.90340       -0.59800       -0.23050
C         -7.07740       -1.43640       -0.95880
Cl        -7.78120       -2.63930       -2.04160
C         -5.71100       -1.35120       -0.85490
Cl        -4.67940       -2.44910       -1.79230
C         -5.07070       -0.42140       -0.01410
C         -3.61480       -0.37180       -0.04200
C         -2.81500        0.16760        0.81210
C         -1.37780        0.18610        0.70850
C         -0.68660       -0.24800       -0.34650
C          0.70080       -0.20870       -0.34230
C          1.44460        0.26070        0.70540
C          0.70540        0.71720        1.81490
C         -0.65020        0.67980        1.81010
C          2.88970        0.39030        0.73640
C          3.66280        0.30220       -0.31070
C          5.11580        0.42010       -0.28260
C          5.72420        0.76280       -1.48890
Cl         4.75060        1.10400       -2.91230
C          7.08790        0.84920       -1.58530
Cl         7.83930        1.31210       -3.12390
C          7.90570        0.59280       -0.46590
C          9.34650        0.69100       -0.53870
C         10.06370       -0.05100       -1.52870
C          9.77220       -1.38140       -1.78530
Cl         8.48470       -2.16340       -0.84520
C         10.44790       -2.13040       -2.74280
Cl        10.04590       -3.81410       -3.02210
C         11.44250       -1.53020       -3.46400
Cl        12.33140       -2.43980       -4.70320
C         11.77980       -0.20070       -3.25070
Cl        13.05130        0.55730       -4.19210
C         11.08350        0.49220       -2.29450
Cl        11.52050        2.17100       -2.02730
C         10.05710        1.28150        0.58130
C          9.73500        2.54080        1.00590
Cl         8.54610        3.53160        0.22520
C         10.39810        3.10190        2.13090
Cl         9.97780        4.70740        2.70960
C         11.34680        2.35860        2.75640
Cl        12.19160        3.09060        4.16420
C         11.69170        1.10940        2.36250
Cl        12.90060        0.21690        3.23240
C         11.02270        0.55520        1.23450
Cl        11.51090       -1.02540        0.68240
C          7.28630        0.25960        0.69650
Cl         8.25290       -0.07010        2.14630
C          5.90660        0.16920        0.80130
Cl         5.24390       -0.35430        2.34720
C         -5.89100        0.40980        0.70730
Cl        -5.25780        1.64680        1.75320
C         -7.27180        0.30150        0.58190
Cl        -8.24270        1.42220        1.52600
C        -11.21990       -2.31890       -0.42200
Cl       -11.84840       -1.44100       -1.78660
C        -11.85750       -3.42680        0.07820
Cl       -13.35050       -3.97330       -0.66030
H         -3.11950       -0.85400       -0.91070
H         -3.27100        0.61760        1.71040
H         -1.16450       -0.64590       -1.24130
H          1.26980       -0.57490       -1.20450
H          1.26100        1.09280        2.65830
H         -1.16940        1.05590        2.68010
H          3.32940        0.59590        1.69970
H          3.17840        0.12590       -1.27780
