14

C          2.34570       -0.43210       -0.13710
C          0.88150       -0.21470       -0.08120
C          0.37790        1.05470        0.10970
C         -0.98640        1.29690        0.16760
C         -1.88670        0.26230        0.03410
C         -1.40080       -1.02780       -0.15950
C         -0.03390       -1.24210       -0.21330
H          2.89950        0.38420       -0.60900
H          2.72970       -0.63430        0.90340
H          1.10870        1.87140        0.21470
H         -1.34020        2.30650        0.31860
H         -2.92830        0.45660        0.07960
H         -2.11660       -1.83390       -0.26320
H          0.34990       -2.24770       -0.36430
