58

C         -3.53190       -3.20750       -1.75890
C         -3.45470       -2.46410       -0.42190
C         -4.70530       -1.62460       -0.31920
C         -3.51430       -3.47510        0.72880
C         -2.23290       -1.65150       -0.31880
C         -2.33870       -0.33630       -0.21690
C         -1.16400        0.52400       -0.11120
C         -1.31360        1.89070       -0.00530
C         -0.22500        2.73020        0.09680
C          1.01410        2.16990        0.09090
C          1.20400        0.79310       -0.01440
C          2.47480        0.24660       -0.01610
C          2.63220       -1.13730       -0.12160
C          1.50320       -1.92200       -0.22230
C          0.21200       -1.40370       -0.22310
C         -0.92060       -2.32420       -0.34110
C          0.09770       -0.03750       -0.11670
C          4.01300       -1.71940       -0.12610
C          4.02680       -3.14890        0.34490
C          4.83790       -0.91590        0.87210
C          4.64810       -1.57690       -1.49450
C         -0.50290        4.17640        0.19940
C          0.73560        4.99780        0.38430
C         -1.41350        4.42260        1.38960
C         -1.27070        4.57770       -1.04310
H         -4.31080       -3.96410       -1.69340
H         -3.88120       -2.42670       -2.49440
H         -2.55210       -3.53580       -2.11160
H         -4.85000       -1.02390       -1.22650
H         -5.59360       -2.32110       -0.27340
H         -4.72790       -1.03210        0.62520
H         -2.90240       -4.37160        0.49390
H         -4.58640       -3.72600        0.85940
H         -3.17680       -2.92620        1.62980
H         -3.31990        0.15220       -0.21270
H         -2.34100        2.28340       -0.00540
H          1.87380        2.81790        0.17240
H          3.34550        0.86680        0.06110
H          1.63480       -2.99890       -0.30540
H         -0.78170       -3.01720       -1.18650
H          4.10490       -3.86020       -0.52210
H          4.93890       -3.36910        0.96930
H          3.16600       -3.41900        0.97240
H          4.20200       -0.77870        1.77070
H          5.68770       -1.56240        1.19210
H          5.18280        0.04890        0.44030
H          4.64460       -2.54430       -2.04000
H          4.08490       -0.78900       -2.05800
H          5.71030       -1.25490       -1.43930
H          1.23820        5.15150       -0.58900
H          0.42210        6.00000        0.77100
H          1.36280        4.54020        1.15450
H         -2.21120        5.15720        1.10910
H         -1.91530        3.49190        1.72140
H         -0.83800        4.80490        2.24890
H         -1.24900        3.76930       -1.82830
H         -2.35140        4.76460       -0.84380
H         -0.82220        5.48810       -1.49380
