41

O          5.82230       -1.67070        2.21420
N          5.22630       -0.45990        2.01080
O          5.66900        0.58790        2.50330
C          4.04670       -0.37140        1.20530
C          3.42280        0.83250        0.97740
C          2.27830        0.97280        0.20520
C          1.76640       -0.19800       -0.35100
N          0.61160       -0.09080       -1.12350
N         -0.70700        0.02760       -0.70420
C         -1.60560        0.82870       -1.49650
C         -2.45820        1.70860       -0.86610
C         -3.33880        2.50300       -1.55500
C         -3.36320        2.40900       -2.93240
C         -2.51400        1.53170       -3.56890
C         -1.63720        0.74250       -2.86280
C         -1.28470       -0.57600        0.43800
C         -2.52240       -1.20200        0.31370
C         -3.13750       -1.80610        1.38940
C         -2.52940       -1.80540        2.64150
C         -1.31110       -1.19180        2.77420
C         -0.70890       -0.58850        1.67530
C          2.33810       -1.44130       -0.16740
C          3.47870       -1.48070        0.61950
N          1.80960       -2.60690       -0.75530
O          0.50270       -2.76390       -1.06300
O          2.58590       -3.53910       -1.00330
N          1.67210        2.23720       -0.00630
O          1.74790        3.17500        0.98080
O          1.08400        2.53220       -1.04800
H          3.84390        1.74430        1.42720
H         -2.45220        1.79530        0.21470
H         -4.01790        3.20120       -1.08200
H         -4.06010        3.03580       -3.50030
H         -2.51680        1.44170       -4.65460
H         -0.96880        0.05140       -3.36570
H         -3.00610       -1.21130       -0.64700
H         -4.10110       -2.30040        1.31920
H         -3.02750       -2.28830        3.48530
H         -0.83090       -1.18320        3.73230
H          0.23520       -0.12770        1.84090
H          3.95810       -2.45500        0.78490
