39

O          6.10080        0.60270       -1.60960
N          5.44210       -0.22590       -0.71830
O          6.01460       -1.23110       -0.26800
C          4.11080        0.06780       -0.31470
C          3.45620       -0.74370        0.56400
C          2.14580       -0.46970        0.97200
C          1.48340        0.63590        0.48970
N          0.18660        0.90800        0.89960
N         -1.02360        0.35440        0.42080
C         -1.11360       -0.95230       -0.04760
C         -0.17770       -1.36230       -1.02300
C         -0.17260       -2.65260       -1.49190
C         -1.05710       -3.60880       -1.05460
C         -1.96990       -3.22840       -0.11060
C         -1.97740       -1.91790        0.36890
C         -2.11920        1.27320        0.52840
C         -1.84340        2.55770        0.00470
C         -2.75760        3.56200        0.04040
C         -3.98380        3.31580        0.60320
C         -4.29620        2.08570        1.12460
C         -3.33060        1.06150        1.07530
C          2.19090        1.44370       -0.41030
C          3.47090        1.16990       -0.80430
N          1.51640       -1.33610        1.88650
O          0.54140       -0.83380        2.71530
O          1.81050       -2.54140        1.97200
H          3.95170       -1.61410        0.95570
H          0.51610       -0.61750       -1.38660
H          0.57680       -2.91220       -2.24750
H         -1.02580       -4.63840       -1.45250
H         -2.67070       -3.95780        0.24560
H         -2.71230       -1.72730        1.12450
H         -0.86050        2.75420       -0.44680
H         -2.52140        4.56030       -0.37640
H         -4.70020        4.13480        0.62060
H         -5.24760        1.86140        1.57270
H         -3.59740        0.10460        1.51260
H          1.65000        2.29950       -0.77100
H          3.99300        1.81820       -1.50500
