54

Cl         7.66620       -1.67410        1.32920
C          6.21110       -0.90560        0.71550
C          5.19960       -0.53450        1.58270
C          4.05360        0.06980        1.10950
Cl         2.81820        0.51040        2.27120
C          3.86500        0.32930       -0.23670
S          2.38790        1.11290       -0.84790
N          1.12810       -0.02200       -1.28390
C         -0.16230        0.04200       -0.68260
C         -0.78170       -1.11550       -0.21720
C         -2.02570       -1.12190        0.37750
C         -2.69700        0.06400        0.52420
C         -2.11280        1.23580        0.07320
C         -0.85480        1.22160       -0.52550
C         -0.28660        2.47860       -0.99760
C          0.27540        2.59500       -2.26740
C          0.81710        3.75630       -2.74560
C          0.81680        4.86890       -1.95430
C          0.26290        4.78880       -0.67810
C         -0.27910        3.61120       -0.21030
C         -4.02350        0.10420        1.15350
C         -4.88320       -0.95470        1.02120
C         -6.14510       -0.95000        1.60460
C         -6.55710        0.14640        2.34120
C         -5.68610        1.20850        2.46980
C         -4.42360        1.19760        1.88310
C         -0.05210       -2.37160       -0.38180
C         -0.62740       -3.51870       -0.88160
C          0.11800       -4.69720       -1.01330
C          1.43390       -4.72910       -0.64700
C          2.02000       -3.59310       -0.14750
C          1.27110       -2.42160       -0.01850
C          4.89690       -0.05480       -1.07880
C          6.05280       -0.65980       -0.63690
H          5.35940       -0.74310        2.63280
H         -2.50300       -2.01810        0.73670
H         -2.66040        2.16510        0.19780
H          0.26800        1.70960       -2.87810
H          1.25220        3.83150       -3.73810
H          1.23220        5.79230       -2.29850
H          0.28060        5.68920       -0.08050
H         -0.70150        3.58340        0.78440
H         -4.61920       -1.85240        0.45220
H         -6.83810       -1.76550        1.51760
H         -7.53950        0.19480        2.81820
H         -6.02130        2.07010        3.05410
H         -3.78130        2.07300        2.02420
H         -1.67050       -3.49530       -1.17210
H         -0.32300       -5.60300       -1.40460
H          2.05340       -5.61700       -0.72960
H          3.05770       -3.61300        0.14350
H          1.78870       -1.57970        0.37830
H          4.81200        0.11990       -2.14300
H          6.85710       -0.95900       -1.29900
