48

C         -3.84630       -2.03620        0.82680
C         -2.61400       -2.17000       -0.00510
C         -2.03450       -3.54310        0.21570
C         -3.04660       -2.13000       -1.48130
C         -1.62380       -1.09270        0.18270
C         -2.02000        0.21010       -0.04370
C         -1.13340        1.29850        0.08450
C          0.14520        1.00480        0.44350
C          0.60220       -0.28790        0.68410
N          1.94530       -0.56830        1.04790
S          2.96430       -1.75740        0.22080
C          4.60320       -1.04440        0.00740
C          5.63490       -1.74160       -0.55160
C          6.89500       -1.14700       -0.68560
C          7.11000        0.15240       -0.25780
C          6.07660        0.85530        0.30350
C          4.84960        0.26190        0.43050
C         -0.31820       -1.32480        0.54400
C         -1.67300        2.61810       -0.19710
C         -2.62120        2.44620       -1.39950
C         -0.68480        3.65020       -0.62190
C         -2.53750        3.10690        0.94640
H         -4.32110       -1.03080        0.77460
H         -4.59910       -2.75580        0.38270
H         -3.65200       -2.32840        1.87480
H         -2.89070       -4.26080        0.10940
H         -1.31590       -3.79560       -0.61310
H         -1.52430       -3.63210        1.20030
H         -2.40350       -2.84330       -2.06480
H         -4.10790       -2.34000       -1.58480
H         -2.85900       -1.12190       -1.88080
H         -3.05920        0.35130       -0.32370
H          0.86010        1.80840        0.56180
H          5.47320       -2.75470       -0.89800
H          7.71860       -1.71590       -1.12740
H          8.11720        0.56200       -0.39380
H          6.21510        1.86800        0.65140
H          3.99710        0.80520        0.85680
H         -0.02730       -2.35930        0.71930
H         -2.72790        3.38820       -1.94350
H         -2.25880        1.62780       -2.06210
H         -3.61390        2.19850       -0.99160
H         -0.62350        3.71660       -1.74140
H          0.32230        3.57420       -0.24050
H         -1.06580        4.65480       -0.28980
H         -2.89090        2.25140        1.56130
H         -3.47050        3.61280        0.58440
H         -1.96540        3.75850        1.63780
