13

N          2.47850       -0.37690       -0.25900
C          1.09360       -0.14370       -0.08400
C          0.34930       -0.99400        0.68970
F          0.90890       -2.08520        1.31350
C         -1.00490       -0.73240        0.83750
F         -1.73820       -1.58590        1.61080
C         -1.62150        0.34600        0.23650
C         -0.86570        1.19840       -0.54140
F         -1.45530        2.27080       -1.14480
C          0.48340        0.92940       -0.68280
F          1.19720        1.79980       -1.46310
H          2.85850       -1.11370       -0.90960
H         -2.68360        0.48750        0.39680
