56

N          0.73510        1.44840       -0.54820
S          2.03190        1.63370        0.58360
C          3.48840        0.69840        0.19020
N          4.54400        1.06570       -0.57720
C          5.41570        0.05070       -0.60010
C          6.64510       -0.18470       -1.18640
C          7.30790       -1.39040       -1.00290
C          6.75690       -2.38850       -0.22900
C          5.53100       -2.14930        0.35370
C          4.88470       -0.95750        0.16720
O          3.73840       -0.51150        0.60910
C         -0.52820        0.86810       -0.32270
C         -1.62270        1.66180       -0.12830
C         -2.87490        1.08910        0.08610
C         -3.03820       -0.29010        0.10730
C         -1.91200       -1.04390       -0.09270
C         -0.63950       -0.52380       -0.31170
C          0.47280       -1.42080       -0.54480
C          1.32510       -1.23480       -1.59650
C          2.39620       -2.10960       -1.83690
C          2.58350       -3.19170       -0.97180
C          1.72830       -3.37880        0.08480
C          0.67530       -2.49040        0.29310
C         -4.35360       -0.85630        0.33370
C         -4.45870       -2.06560        0.97460
C         -5.70910       -2.62980        1.20370
C         -6.85150       -1.98470        0.79210
C         -6.75950       -0.77560        0.15050
C         -5.49450       -0.21600       -0.07530
C         -1.60250        3.11620       -0.11370
C         -0.79420        3.79420        0.74960
C         -0.74200        5.19370        0.76790
C         -1.52980        5.88690       -0.10970
C         -2.34950        5.20810       -0.98420
C         -2.39730        3.83670       -0.99910
H          7.09760        0.59550       -1.80380
H          8.27870       -1.57510       -1.46620
H          7.23400       -3.34230       -0.05710
H          5.09360       -2.92450        0.96030
H         -3.74340        1.70660        0.23990
H         -1.99710       -2.13840       -0.08330
H          1.14460       -0.38450       -2.24200
H          3.05670       -1.94420       -2.67300
H          3.42270       -3.87130       -1.16600
H          1.88640       -4.21330        0.73830
H          0.01940       -2.66100        1.12950
H         -3.55620       -2.55650        1.28990
H         -5.78230       -3.56840        1.70160
H         -7.84790       -2.42210        0.96820
H         -7.66780       -0.27370       -0.17100
H         -5.47280        0.73530       -0.58310
H         -0.16980        3.29180        1.46920
H         -0.10020        5.71420        1.45310
H         -1.50840        6.98030       -0.11670
H         -2.96110        5.80410       -1.66660
H         -3.02910        3.28960       -1.67260
