33

Cl        -5.02430       -2.67660        1.31050
C         -3.57760       -1.81780        0.81090
C         -3.14460       -0.70090        1.48000
C         -1.99920       -0.03720        1.06900
Cl        -1.49640        1.38120        1.96210
C         -1.26470       -0.47460       -0.01600
C         -0.05700        0.19620       -0.47740
C          0.05310        1.61660       -0.17980
C          1.02350        2.19840        0.61120
Cl         2.22570        1.15860        1.32170
C          1.04680        3.54130        0.83370
N          0.11460        4.36750        0.28580
C         -0.84980        3.83230       -0.49380
C         -0.89990        2.47670       -0.73750
Cl        -2.18890        1.88040       -1.76130
C          1.16860       -0.57120       -0.46530
C          2.17250       -0.32410       -1.38180
Cl         1.99000        0.94260       -2.60260
C          3.35880       -1.02820       -1.41110
C          3.51110       -2.02040       -0.46090
Cl         4.98680       -2.96380       -0.42600
C          2.53700       -2.30310        0.47370
C          1.37070       -1.56830        0.45750
Cl         0.16800       -1.97940        1.67720
C         -1.71110       -1.60130       -0.68210
Cl        -0.85590       -2.25210       -2.08020
C         -2.85380       -2.26970       -0.27810
H         -3.69830       -0.32640        2.34050
H          1.84570        3.92910        1.47090
H         -1.58650        4.49610       -0.92500
H          4.14890       -0.83610       -2.12990
H          2.68690       -3.10020        1.21900
H         -3.20060       -3.16540       -0.81500
