32

C         -6.19970        0.40900        0.01030
O         -5.15640        0.64870       -0.89300
C         -3.86650        0.19620       -0.70260
C         -3.53230       -0.53100        0.41130
C         -2.25230       -0.96720        0.57850
C         -1.21970       -0.70860       -0.35220
C         -1.59250        0.01060       -1.43540
C         -2.90520        0.48010       -1.64490
N          0.05940       -1.22140       -0.08970
O         -0.00180       -2.57650        0.31030
C          1.32280       -0.64570       -0.15540
C          2.17330       -0.88030        0.93510
C          3.45040       -0.40030        1.01890
C          3.97200        0.35930        0.00120
O          5.27980        0.85360        0.08260
C          6.04360        0.55060        1.23480
C          3.16350        0.60340       -1.07540
C          1.85000        0.10830       -1.15960
H         -5.93030        0.70400        1.04630
H         -6.56350       -0.64060       -0.04780
H         -7.07900        1.03790       -0.28760
H         -4.29010       -0.74110        1.12980
H         -1.95630       -1.54230        1.44480
H         -0.88930        0.25180       -2.21020
H         -3.16090        1.05230       -2.52480
H          1.77160       -1.47580        1.73860
H          4.07150       -0.61200        1.89060
H          6.10840       -0.55860        1.34510
H          7.02520        1.03000        1.23370
H          5.42220        0.90080        2.10840
H          3.58150        1.20770       -1.88260
H          1.30070        0.35040       -2.05940
