72

C          3.92390        1.17890        2.33040
C          2.88750        0.07330        2.19520
C          3.40280       -1.11200        2.97870
C          1.62800        0.63590        2.86300
C          2.62750       -0.22830        0.78610
C          1.41840       -0.13280        0.26880
C          1.10390       -0.42070       -1.12610
C         -0.08170       -0.36950       -1.66260
C         -1.32600       -0.02590       -0.99130
C         -1.69630       -0.60440        0.19470
C         -2.86440       -0.28010        0.88090
C         -3.66260        0.67810        0.30120
O         -4.82830        1.03070        0.94590
C         -3.35150        1.29770       -0.88700
C         -2.17210        0.92980       -1.52140
C         -4.22560        2.33560       -1.49780
C         -3.61750        2.82080       -2.79320
C         -5.59980        1.80480       -1.80970
C         -4.37780        3.53070       -0.58030
C         -3.23420       -0.92940        2.17100
C         -3.35810        0.06670        3.28460
C         -2.20140       -1.95940        2.55010
C         -4.55350       -1.68810        2.02280
C          2.25080       -0.83640       -1.95010
C          3.47510       -0.95060       -1.49550
C          3.71420       -0.64720       -0.09250
O          4.89780       -0.76390        0.32450
C          4.62050       -1.38010       -2.35640
C          4.13420       -1.65710       -3.77500
C          5.22710       -2.64700       -1.82970
C          5.66360       -0.29170       -2.47490
H          3.70600        1.98330        1.59690
H          3.77400        1.62430        3.33560
H          4.94650        0.79730        2.30110
H          2.59240       -1.82620        3.23030
H          4.19740       -1.60090        2.40140
H          3.88620       -0.67610        3.89460
H          1.89340        1.04660        3.88120
H          1.21690        1.48740        2.29750
H          0.90300       -0.17350        3.07940
H          0.57970        0.19410        0.89570
H         -0.19650       -0.60010       -2.72210
H         -1.08730       -1.36520        0.63930
H         -1.87350        1.38220       -2.45730
H         -4.28140        3.60290       -3.23710
H         -2.62500        3.26670       -2.67630
H         -3.53080        1.94980       -3.49910
H         -5.56720        0.86710       -2.38020
H         -6.24440        1.75280       -0.90500
H         -6.08810        2.56700       -2.47250
H         -4.65530        4.39230       -1.19970
H         -5.13860        3.35310        0.21130
H         -3.40400        3.74520       -0.05620
H         -3.59790        1.09340        2.93820
H         -2.44720        0.04310        3.92410
H         -4.18910       -0.26370        3.93640
H         -2.13540       -2.72590        1.72330
H         -1.22130       -1.55450        2.80440
H         -2.65120       -2.55400        3.39890
H         -4.63840       -1.99460        0.96580
H         -5.40760       -1.07120        2.35090
H         -4.52680       -2.60970        2.63050
H          2.08400       -1.06530       -3.00490
H          3.68150       -0.78400       -4.24600
H          4.96670       -2.10400       -4.37520
H          3.36060       -2.46940       -3.74300
H          4.50830       -3.08630       -1.09020
H          6.21530       -2.48120       -1.35450
H          5.37080       -3.40740       -2.64100
H          6.27630       -0.54320       -3.38010
H          5.19420        0.69670       -2.63960
H          6.32960       -0.34700       -1.61150
