12

O          2.71120       -0.29120       -0.05430
C          1.33140       -0.13800       -0.02700
C          0.51860       -1.24850        0.07780
C         -0.85850       -1.13650        0.10800
C         -1.37930        0.13930        0.02830
C         -0.56900        1.24520       -0.07620
C          0.80660        1.13570       -0.10650
H          0.91210       -2.26060        0.14160
H         -1.51230       -1.99830        0.19000
H         -2.45410        0.29360        0.04690
H         -0.96380        2.25910       -0.14010
H          1.45710        2.00020       -0.18860
