39

C          0.18070        3.67290       -0.41620
C          0.13300        2.19970       -0.25460
C          1.29880        1.47590       -0.12780
C          1.22520        0.12150        0.01960
C          0.00160       -0.50590        0.04040
O         -0.11570       -1.88090        0.18840
C         -1.18790        0.20970       -0.08640
C         -1.09820        1.58230       -0.23510
C         -2.47730       -0.48610       -0.06050
C         -2.68900       -1.23930        1.25160
C         -2.60470       -1.51870       -1.16520
C         -3.59670        0.52950       -0.16240
C          2.46190       -0.67600        0.15730
C          2.53290       -1.67320       -0.97370
C          3.65440        0.23030        0.19520
C          2.46690       -1.48110        1.44950
H          0.11880        3.91630       -1.48420
H         -0.71800        4.09140        0.07780
H          1.07210        4.13020        0.05700
H          2.25790        2.01710       -0.14970
H         -2.01840        2.17890       -0.33800
H         -2.19750       -2.22790        1.22390
H         -3.78190       -1.41800        1.33120
H         -2.35970       -0.60350        2.08100
H         -2.39960       -2.54990       -0.79260
H         -3.66520       -1.51940       -1.49350
H         -1.92280       -1.31700       -2.00840
H         -3.51950        1.05340       -1.13900
H         -4.54610       -0.04640       -0.09050
H         -3.48300        1.21550        0.70540
H          2.05970       -2.65210       -0.67410
H          3.57970       -1.86170       -1.27240
H          1.95250       -1.31250       -1.85390
H          4.56270       -0.37120        0.37850
H          3.53490        0.94400        1.03230
H          3.80550        0.80490       -0.72800
H          1.92430       -2.44160        1.33210
H          2.04910       -0.85070        2.24990
H          3.50840       -1.74030        1.73490
