44

Cl         3.48730        5.26890        1.16970
C          2.69200        3.74830        0.81540
C          1.72440        3.69440       -0.15760
C          1.09830        2.48790       -0.43360
Cl        -0.12290        2.43370       -1.66580
C          1.41400        1.32580        0.23970
C          0.78520        0.06670       -0.02330
N         -0.60390       -0.02500       -0.06910
C         -1.33830       -0.51220       -1.09960
C         -0.97660       -1.03440       -2.34030
C         -1.97860       -1.46030       -3.19840
C         -3.31250       -1.37990       -2.85620
C         -3.68190       -0.86560       -1.63270
C         -2.67650       -0.43940       -0.77400
C         -2.73070        0.11340        0.50030
C         -3.83150        0.40090        1.29000
C         -3.62980        0.95490        2.53680
C         -2.34880        1.21390        2.97930
C         -1.27260        0.91670        2.17010
C         -1.45560        0.36400        0.92410
C          1.58830       -1.10810       -0.18270
C          2.64290       -1.15260       -1.07150
Cl         3.07290        0.22800       -2.06820
C          3.40550       -2.29360       -1.21150
C          3.12800       -3.43140       -0.45640
Cl         4.07320       -4.89250       -0.60850
C          2.08260       -3.39140        0.42660
C          1.32110       -2.23960        0.56070
Cl         0.00560       -2.31140        1.72710
C          2.39600        1.42240        1.21460
Cl         2.88000        0.00660        2.13660
C          3.02830        2.61070        1.50250
H          1.45030        4.58360       -0.70610
H          0.07390       -1.08500       -2.58060
H         -1.68340       -1.86840       -4.16940
H         -4.10550       -1.70690       -3.51230
H         -4.70730       -0.77740       -1.30900
H         -4.83600        0.18810        0.92080
H         -4.49640        1.18330        3.16320
H         -2.21600        1.65540        3.97620
H         -0.25640        1.10920        2.49130
H          4.24710       -2.36320       -1.90540
H          1.87170       -4.28750        1.01470
H          3.79270        2.64930        2.27240
