76

C         11.97840       -1.14300       -1.35160
C         11.53410        0.26740       -1.02620
C         12.57730        1.23530       -1.49770
O         10.29940        0.45630       -1.60900
B          9.30590        0.04100       -0.62390
O         10.02940       -0.24520        0.60740
C         11.22550        0.41250        0.44770
C         11.03010        1.86150        0.78430
C         12.33200       -0.17940        1.30460
C          7.75990        0.32720       -0.78800
C          7.16990        1.30530       -1.54340
C          5.83740        1.37120       -1.54120
C          5.16640        0.45310       -0.78180
S          6.42330       -0.47400       -0.09440
C          3.70060        0.32310       -0.61850
C          3.17710       -0.60060        0.14030
C          1.71220       -0.73000        0.30300
S          0.46340        0.20800       -0.39560
C          1.02590       -1.63820        1.05620
C         -0.30700       -1.56310        1.05000
C         -0.88670       -0.58420        0.29160
C         -2.31030       -0.26110        0.09110
C         -3.21790       -0.96800        0.69230
C         -4.65370       -0.73550        0.56460
C         -5.18430        0.26650       -0.21460
C         -6.56420        0.46490       -0.31730
C         -5.55390       -1.53360        1.23880
C         -6.93650       -1.34920        1.14740
C         -7.44000       -0.34210        0.36300
N         -8.82830       -0.13160        0.25070
C         -9.34920        1.18390        0.33460
C        -10.31330        1.62620       -0.56780
C        -10.80140        2.90690       -0.46430
C        -10.38260        3.79410        0.49990
C         -9.42760        3.36560        1.39880
C         -8.93400        2.08140        1.30000
C         -9.67760       -1.25010        0.05510
C         -9.39550       -2.25240       -0.84640
C        -10.26150       -3.32010       -0.99460
C        -11.42820       -3.41810       -0.25140
C        -11.71050       -2.41920        0.64790
C        -10.83670       -1.36020        0.78460
H         11.25660       -1.86360       -0.88580
H         11.84660       -1.26440       -2.46100
H         13.02050       -1.34680       -1.10950
H         12.44160        1.50150       -2.57320
H         12.56300        2.20320       -0.94010
H         13.57690        0.74870       -1.36410
H         11.97020        2.31520        1.17870
H         10.69220        2.38710       -0.12930
H         10.21630        1.91610        1.56410
H         11.89800       -0.38780        2.30440
H         13.14170        0.58290        1.34400
H         12.67570       -1.13110        0.89720
H          7.82250        2.00030       -2.12390
H          5.26470        2.12840       -2.12130
H          3.06110        1.00810       -1.13950
H          3.78750       -1.28350        0.66090
H          1.59090       -2.39860        1.64070
H         -0.96530       -2.25170        1.62670
H         -2.55950        0.54850       -0.54540
H         -2.90320       -1.78790        1.33440
H         -4.53170        0.91640       -0.76030
H         -6.89940        1.27990       -0.95480
H         -5.16330       -2.32660        1.85660
H         -7.57970       -2.02270        1.71150
H        -10.65750        0.94320       -1.33560
H        -11.55240        3.23580       -1.17550
H        -10.77230        4.79830        0.57280
H         -9.05760        4.01930        2.18180
H         -8.18240        1.77410        2.02350
H         -8.49600       -2.20870       -1.44200
H        -10.06810       -4.12200       -1.69350
H        -12.08390       -4.26880       -0.39350
H        -12.62140       -2.49980        1.22530
H        -11.07980       -0.59490        1.49210
